Circuit: * C:\Users\micha\Documents\GitHub\BUT-FME-REV\01_prezentace\Ukazky\Ruzne\pwm.asc

WARNING: Specified period is not longer than the sum of Trise, Tfall, and Ton for v1.  Increasing period to 0.000100002
Direct Newton iteration failed to find .op point.  (Use ".option noopiter" to skip.)
Starting Gmin stepping
Gmin = 10
Gmin = 1.07374
Gmin = 0.115292
Gmin = 0.0123794
Gmin = 0.00132923
Gmin = 0.000142725
Gmin = 1.5325e-005
Gmin = 1.6455e-006
Gmin = 1.76685e-007
Gmin = 1.89714e-008
Gmin = 2.03704e-009
Gmin = 2.18725e-010
Gmin = 2.34854e-011
Gmin = 2.52173e-012
Gmin = 2.70769e-013
Gmin = 0
Gmin stepping succeeded in finding the operating point.


Date: Tue Mar 24 08:26:34 2026
Total elapsed time: 0.227 seconds.

tnom = 27
temp = 27
method = modified trap
totiter = 10590
traniter = 10176
tranpoints = 3587
accept = 2955
rejected = 632
matrix size = 14
fillins = 0
solver = Normal
Matrix Compiler1: 554 bytes object code size  0.3/0.1/[0.1]
Matrix Compiler2: 1.17 KB object code size  0.2/0.2/[0.2]

